Circuit: * C:\Users\Sourish G\Desktop\1EV21EC_009_163_167\1RV21EC_009_163_167.asc

Direct Newton iteration for .op point succeeded.

Date: Mon Jan 23 10:22:08 2023
Total elapsed time: 0.019 seconds.

tnom = 27
temp = 27
method = trap
totiter = 3
traniter = 0
tranpoints = 0
accept = 0
rejected = 0
matrix size = 10
fillins = 4
solver = Normal
Matrix Compiler1:      36 opcodes
Matrix Compiler2: 770 bytes object code size
